<routes xmlns:xsi="http://www.w3.org/2001/XMLSchema-instance" xsi:noNamespaceSchemaLocation="http://sumo.dlr.de/xsd/routes_file.xsd">
    
    <vType id="COCHE_NORMAL" vClass="passenger" />
    <vType id="AMBULANCIA" vClass="emergency" guiShape="bus" color="255,0,0" speedFactor="2.0" laneChangeModel="SL2015" />

    
    <flow id="f_0" type="COCHE_NORMAL" begin="0" end="3600" period="10" from="-E22" to="E28" />
    <flow id="f_1" type="DEFAULT_BIKETYPE" begin="0" end="3600" period="60" from="-E22" to="E18" />
    <flow id="vh-Familia3" type="COCHE_NORMAL" begin="0" end="3600" period="8" from="-E30" to="E27" />
    <flow id="vh-Familiar" type="COCHE_NORMAL" begin="0" end="3600" period="12" from="-E23" to="E29" />
    <flow id="vh-Pesao2" type="DEFAULT_CONTAINERTYPE" begin="0" end="3600" period="40" from="E12" to="E19" />
    <flow id="vh-motorola" type="DEFAULT_BIKETYPE" begin="0" end="3600" period="50" from="-E21" to="E24" />
    <flow id="vh-motorola3" type="DEFAULT_BIKETYPE" begin="0" end="3600" period="60" from="-E11" to="E28" />
    <flow id="vh-pesao1" type="DEFAULT_CONTAINERTYPE" begin="0" end="3600" period="30" from="-E29" to="E11" />

</routes>
