<edges>
    <edge id="calle1" from="A" to="B" priority="1" numLanes="1" speed="13.89" />
</edges>