<nodes>
    <node id="A" x="0.0" y="0.0" />
    <node id="B" x="500.0" y="0.0" />
</nodes>