<?xml version="1.0" encoding="UTF-8"?>

<!-- generated on 2025-09-24 10:40:19 by Eclipse SUMO netedit Version 1.24.0
<neteditConfiguration xmlns:xsi="http://www.w3.org/2001/XMLSchema-instance" xsi:noNamespaceSchemaLocation="http://sumo.dlr.de/xsd/neteditConfiguration.xsd">

    <input>
        <sumo-net-file value="C:\Users\Jesus\Desktop\tuto.net.xml"/>
    </input>

    <output>
        <output-file value="C:\Users\Jesus\Desktop\tuto.net.xml"/>
    </output>

    <processing>
        <offset.disable-normalization value="true"/>
    </processing>

    <junctions>
        <no-turnarounds value="true"/>
    </junctions>

    <netedit>
        <new-network value="false"/>
    </netedit>

</neteditConfiguration>
-->

<net version="1.20" junctionCornerDetail="5" limitTurnSpeed="5.50" xmlns:xsi="http://www.w3.org/2001/XMLSchema-instance" xsi:noNamespaceSchemaLocation="http://sumo.dlr.de/xsd/net_file.xsd">

    <location netOffset="0.00,0.00" convBoundary="-100.00,-100.00,200.00,100.00" origBoundary="10000000000.00,10000000000.00,-10000000000.00,-10000000000.00" projParameter="!"/>

    <edge id=":J6_0" function="internal">
        <lane id=":J6_0_0" index="0" speed="6.51" length="9.03" shape="-1.60,7.20 -1.95,4.75 -3.00,3.00 -4.75,1.95 -7.20,1.60"/>
    </edge>
    <edge id=":J6_1" function="internal">
        <lane id=":J6_1_0" index="0" speed="13.89" length="14.40" shape="-1.60,7.20 -1.60,-7.20"/>
    </edge>
    <edge id=":J6_2" function="internal">
        <lane id=":J6_2_0" index="0" speed="8.00" length="4.07" shape="-1.60,7.20 -1.05,3.35 -0.96,3.20"/>
    </edge>
    <edge id=":J6_12" function="internal">
        <lane id=":J6_12_0" index="0" speed="8.00" length="10.13" shape="-0.96,3.20 0.60,0.60 3.35,-1.05 7.20,-1.60"/>
    </edge>
    <edge id=":J6_3" function="internal">
        <lane id=":J6_3_0" index="0" speed="6.51" length="9.03" shape="7.20,1.60 4.75,1.95 3.00,3.00 1.95,4.75 1.60,7.20"/>
    </edge>
    <edge id=":J6_4" function="internal">
        <lane id=":J6_4_0" index="0" speed="13.89" length="14.40" shape="7.20,1.60 -7.20,1.60"/>
    </edge>
    <edge id=":J6_5" function="internal">
        <lane id=":J6_5_0" index="0" speed="8.00" length="14.19" shape="7.20,1.60 3.35,1.05 0.60,-0.60 -1.05,-3.35 -1.60,-7.20"/>
    </edge>
    <edge id=":J6_6" function="internal">
        <lane id=":J6_6_0" index="0" speed="6.51" length="9.03" shape="1.60,-7.20 1.95,-4.75 3.00,-3.00 4.75,-1.95 7.20,-1.60"/>
    </edge>
    <edge id=":J6_7" function="internal">
        <lane id=":J6_7_0" index="0" speed="13.89" length="14.40" shape="1.60,-7.20 1.60,7.20"/>
    </edge>
    <edge id=":J6_8" function="internal">
        <lane id=":J6_8_0" index="0" speed="8.00" length="4.07" shape="1.60,-7.20 1.05,-3.35 0.96,-3.20"/>
    </edge>
    <edge id=":J6_13" function="internal">
        <lane id=":J6_13_0" index="0" speed="8.00" length="10.13" shape="0.96,-3.20 -0.60,-0.60 -3.35,1.05 -7.20,1.60"/>
    </edge>
    <edge id=":J6_9" function="internal">
        <lane id=":J6_9_0" index="0" speed="6.51" length="9.03" shape="-7.20,-1.60 -4.75,-1.95 -3.00,-3.00 -1.95,-4.75 -1.60,-7.20"/>
    </edge>
    <edge id=":J6_10" function="internal">
        <lane id=":J6_10_0" index="0" speed="13.89" length="14.40" shape="-7.20,-1.60 7.20,-1.60"/>
    </edge>
    <edge id=":J6_11" function="internal">
        <lane id=":J6_11_0" index="0" speed="8.00" length="14.19" shape="-7.20,-1.60 -3.35,-1.05 -0.60,0.60 1.05,3.35 1.60,7.20"/>
    </edge>
    <edge id=":J7_0" function="internal">
        <lane id=":J7_0_0" index="0" speed="6.51" length="9.03" shape="98.40,7.20 98.05,4.75 97.00,3.00 95.25,1.95 92.80,1.60"/>
    </edge>
    <edge id=":J7_1" function="internal">
        <lane id=":J7_1_0" index="0" speed="13.89" length="14.40" shape="98.40,7.20 98.40,-7.20"/>
    </edge>
    <edge id=":J7_2" function="internal">
        <lane id=":J7_2_0" index="0" speed="8.00" length="4.07" shape="98.40,7.20 98.95,3.35 99.04,3.20"/>
    </edge>
    <edge id=":J7_12" function="internal">
        <lane id=":J7_12_0" index="0" speed="8.00" length="10.13" shape="99.04,3.20 100.60,0.60 103.35,-1.05 107.20,-1.60"/>
    </edge>
    <edge id=":J7_3" function="internal">
        <lane id=":J7_3_0" index="0" speed="6.51" length="9.03" shape="107.20,1.60 104.75,1.95 103.00,3.00 101.95,4.75 101.60,7.20"/>
    </edge>
    <edge id=":J7_4" function="internal">
        <lane id=":J7_4_0" index="0" speed="13.89" length="14.40" shape="107.20,1.60 92.80,1.60"/>
    </edge>
    <edge id=":J7_5" function="internal">
        <lane id=":J7_5_0" index="0" speed="8.00" length="14.19" shape="107.20,1.60 103.35,1.05 100.60,-0.60 98.95,-3.35 98.40,-7.20"/>
    </edge>
    <edge id=":J7_6" function="internal">
        <lane id=":J7_6_0" index="0" speed="6.51" length="9.03" shape="101.60,-7.20 101.95,-4.75 103.00,-3.00 104.75,-1.95 107.20,-1.60"/>
    </edge>
    <edge id=":J7_7" function="internal">
        <lane id=":J7_7_0" index="0" speed="13.89" length="14.40" shape="101.60,-7.20 101.60,7.20"/>
    </edge>
    <edge id=":J7_8" function="internal">
        <lane id=":J7_8_0" index="0" speed="8.00" length="4.07" shape="101.60,-7.20 101.05,-3.35 100.96,-3.20"/>
    </edge>
    <edge id=":J7_13" function="internal">
        <lane id=":J7_13_0" index="0" speed="8.00" length="10.13" shape="100.96,-3.20 99.40,-0.60 96.65,1.05 92.80,1.60"/>
    </edge>
    <edge id=":J7_9" function="internal">
        <lane id=":J7_9_0" index="0" speed="6.51" length="9.03" shape="92.80,-1.60 95.25,-1.95 97.00,-3.00 98.05,-4.75 98.40,-7.20"/>
    </edge>
    <edge id=":J7_10" function="internal">
        <lane id=":J7_10_0" index="0" speed="13.89" length="14.40" shape="92.80,-1.60 107.20,-1.60"/>
    </edge>
    <edge id=":J7_11" function="internal">
        <lane id=":J7_11_0" index="0" speed="8.00" length="14.19" shape="92.80,-1.60 96.65,-1.05 99.40,0.60 101.05,3.35 101.60,7.20"/>
    </edge>

    <edge id="-E10" from="J6" to="J15" priority="-1">
        <lane id="-E10_0" index="0" speed="13.89" length="92.80" shape="-1.60,-7.20 -1.60,-100.00"/>
    </edge>
    <edge id="-E11" from="J16" to="J6" priority="-1">
        <lane id="-E11_0" index="0" speed="13.89" length="92.80" shape="-1.60,100.00 -1.60,7.20"/>
    </edge>
    <edge id="-E12" from="J7" to="J17" priority="-1">
        <lane id="-E12_0" index="0" speed="13.89" length="92.80" shape="101.60,7.20 101.60,100.00"/>
    </edge>
    <edge id="-E13" from="J18" to="J7" priority="-1">
        <lane id="-E13_0" index="0" speed="13.89" length="92.80" shape="101.60,-100.00 101.60,-7.20"/>
    </edge>
    <edge id="-E4" from="J6" to="J5" priority="-1">
        <lane id="-E4_0" index="0" speed="13.89" length="92.80" shape="-7.20,1.60 -100.00,1.60"/>
    </edge>
    <edge id="-E5" from="J7" to="J6" priority="-1">
        <lane id="-E5_0" index="0" speed="13.89" length="85.60" shape="92.80,1.60 7.20,1.60"/>
    </edge>
    <edge id="-E6" from="J8" to="J7" priority="-1">
        <lane id="-E6_0" index="0" speed="13.89" length="92.80" shape="200.00,1.60 107.20,1.60"/>
    </edge>
    <edge id="E10" from="J15" to="J6" priority="-1">
        <lane id="E10_0" index="0" speed="13.89" length="92.80" shape="1.60,-100.00 1.60,-7.20"/>
    </edge>
    <edge id="E11" from="J6" to="J16" priority="-1">
        <lane id="E11_0" index="0" speed="13.89" length="92.80" shape="1.60,7.20 1.60,100.00"/>
    </edge>
    <edge id="E12" from="J17" to="J7" priority="-1">
        <lane id="E12_0" index="0" speed="13.89" length="92.80" shape="98.40,100.00 98.40,7.20"/>
    </edge>
    <edge id="E13" from="J7" to="J18" priority="-1">
        <lane id="E13_0" index="0" speed="13.89" length="92.80" shape="98.40,-7.20 98.40,-100.00"/>
    </edge>
    <edge id="E4" from="J5" to="J6" priority="-1">
        <lane id="E4_0" index="0" speed="13.89" length="92.80" shape="-100.00,-1.60 -7.20,-1.60"/>
    </edge>
    <edge id="E5" from="J6" to="J7" priority="-1">
        <lane id="E5_0" index="0" speed="13.89" length="85.60" shape="7.20,-1.60 92.80,-1.60"/>
    </edge>
    <edge id="E6" from="J7" to="J8" priority="-1">
        <lane id="E6_0" index="0" speed="13.89" length="92.80" shape="107.20,-1.60 200.00,-1.60"/>
    </edge>

    <junction id="J15" type="dead_end" x="0.00" y="-100.00" incLanes="-E10_0" intLanes="" shape="0.00,-100.00 -3.20,-100.00 0.00,-100.00"/>
    <junction id="J16" type="dead_end" x="0.00" y="100.00" incLanes="E11_0" intLanes="" shape="0.00,100.00 3.20,100.00 0.00,100.00"/>
    <junction id="J17" type="dead_end" x="100.00" y="100.00" incLanes="-E12_0" intLanes="" shape="100.00,100.00 103.20,100.00 100.00,100.00"/>
    <junction id="J18" type="dead_end" x="100.00" y="-100.00" incLanes="E13_0" intLanes="" shape="100.00,-100.00 96.80,-100.00 100.00,-100.00"/>
    <junction id="J5" type="dead_end" x="-100.00" y="0.00" incLanes="-E4_0" intLanes="" shape="-100.00,0.00 -100.00,3.20 -100.00,0.00"/>
    <junction id="J6" type="priority" x="0.00" y="0.00" incLanes="-E11_0 -E5_0 E10_0 E4_0" intLanes=":J6_0_0 :J6_1_0 :J6_12_0 :J6_3_0 :J6_4_0 :J6_5_0 :J6_6_0 :J6_7_0 :J6_13_0 :J6_9_0 :J6_10_0 :J6_11_0" shape="-3.20,7.20 3.20,7.20 3.64,4.98 4.20,4.20 4.98,3.64 5.98,3.31 7.20,3.20 7.20,-3.20 4.98,-3.64 4.20,-4.20 3.64,-4.98 3.31,-5.98 3.20,-7.20 -3.20,-7.20 -3.64,-4.98 -4.20,-4.20 -4.98,-3.64 -5.98,-3.31 -7.20,-3.20 -7.20,3.20 -4.98,3.64 -4.20,4.20 -3.64,4.98 -3.31,5.98">
        <request index="0"  response="000000000000" foes="000100010000" cont="0"/>
        <request index="1"  response="000000000000" foes="111100110000" cont="0"/>
        <request index="2"  response="000111000000" foes="110111110000" cont="1"/>
        <request index="3"  response="000010000000" foes="100010000000" cont="0"/>
        <request index="4"  response="000110000111" foes="100110000111" cont="0"/>
        <request index="5"  response="111110000110" foes="111110000110" cont="0"/>
        <request index="6"  response="000000000000" foes="010000000100" cont="0"/>
        <request index="7"  response="000000000000" foes="110000111100" cont="0"/>
        <request index="8"  response="000000000011" foes="110000110111" cont="1"/>
        <request index="9"  response="000000000010" foes="000000100010" cont="0"/>
        <request index="10" response="000111000110" foes="000111100110" cont="0"/>
        <request index="11" response="000110011110" foes="000110111110" cont="0"/>
    </junction>
    <junction id="J7" type="priority" x="100.00" y="0.00" incLanes="E12_0 -E6_0 -E13_0 E5_0" intLanes=":J7_0_0 :J7_1_0 :J7_12_0 :J7_3_0 :J7_4_0 :J7_5_0 :J7_6_0 :J7_7_0 :J7_13_0 :J7_9_0 :J7_10_0 :J7_11_0" shape="96.80,7.20 103.20,7.20 103.64,4.98 104.20,4.20 104.98,3.64 105.98,3.31 107.20,3.20 107.20,-3.20 104.98,-3.64 104.20,-4.20 103.64,-4.98 103.31,-5.98 103.20,-7.20 96.80,-7.20 96.36,-4.98 95.80,-4.20 95.02,-3.64 94.02,-3.31 92.80,-3.20 92.80,3.20 95.02,3.64 95.80,4.20 96.36,4.98 96.69,5.98">
        <request index="0"  response="000000000000" foes="000100010000" cont="0"/>
        <request index="1"  response="000000000000" foes="111100110000" cont="0"/>
        <request index="2"  response="000011000000" foes="110111110000" cont="1"/>
        <request index="3"  response="000010000000" foes="100010000000" cont="0"/>
        <request index="4"  response="000110000111" foes="100110000111" cont="0"/>
        <request index="5"  response="111110000110" foes="111110000110" cont="0"/>
        <request index="6"  response="000000000000" foes="010000000100" cont="0"/>
        <request index="7"  response="000000000000" foes="110000111100" cont="0"/>
        <request index="8"  response="000000000111" foes="110000110111" cont="1"/>
        <request index="9"  response="000000000010" foes="000000100010" cont="0"/>
        <request index="10" response="000111000110" foes="000111100110" cont="0"/>
        <request index="11" response="000110011110" foes="000110111110" cont="0"/>
    </junction>
    <junction id="J8" type="dead_end" x="200.00" y="0.00" incLanes="E6_0" intLanes="" shape="200.00,0.00 200.00,-3.20 200.00,0.00"/>

    <junction id=":J6_12_0" type="internal" x="-0.96" y="3.20" incLanes=":J6_2_0 E10_0" intLanes=":J6_4_0 :J6_5_0 :J6_6_0 :J6_7_0 :J6_10_0 :J6_11_0"/>
    <junction id=":J6_13_0" type="internal" x="0.96" y="-3.20" incLanes=":J6_8_0 -E11_0" intLanes=":J6_0_0 :J6_1_0 :J6_4_0 :J6_5_0 :J6_10_0 :J6_11_0"/>
    <junction id=":J7_12_0" type="internal" x="99.04" y="3.20" incLanes=":J7_2_0 -E13_0" intLanes=":J7_4_0 :J7_5_0 :J7_6_0 :J7_7_0 :J7_10_0 :J7_11_0"/>
    <junction id=":J7_13_0" type="internal" x="100.96" y="-3.20" incLanes=":J7_8_0 E12_0" intLanes=":J7_0_0 :J7_1_0 :J7_4_0 :J7_5_0 :J7_10_0 :J7_11_0"/>

    <connection from="-E11" to="-E4" fromLane="0" toLane="0" via=":J6_0_0" dir="r" state="M"/>
    <connection from="-E11" to="-E10" fromLane="0" toLane="0" via=":J6_1_0" dir="s" state="M"/>
    <connection from="-E11" to="E5" fromLane="0" toLane="0" via=":J6_2_0" dir="l" state="m"/>
    <connection from="-E13" to="E6" fromLane="0" toLane="0" via=":J7_6_0" dir="r" state="M"/>
    <connection from="-E13" to="-E12" fromLane="0" toLane="0" via=":J7_7_0" dir="s" state="M"/>
    <connection from="-E13" to="-E5" fromLane="0" toLane="0" via=":J7_8_0" dir="l" state="m"/>
    <connection from="-E5" to="E11" fromLane="0" toLane="0" via=":J6_3_0" dir="r" state="m"/>
    <connection from="-E5" to="-E4" fromLane="0" toLane="0" via=":J6_4_0" dir="s" state="m"/>
    <connection from="-E5" to="-E10" fromLane="0" toLane="0" via=":J6_5_0" dir="l" state="m"/>
    <connection from="-E6" to="-E12" fromLane="0" toLane="0" via=":J7_3_0" dir="r" state="m"/>
    <connection from="-E6" to="-E5" fromLane="0" toLane="0" via=":J7_4_0" dir="s" state="m"/>
    <connection from="-E6" to="E13" fromLane="0" toLane="0" via=":J7_5_0" dir="l" state="m"/>
    <connection from="E10" to="E5" fromLane="0" toLane="0" via=":J6_6_0" dir="r" state="M"/>
    <connection from="E10" to="E11" fromLane="0" toLane="0" via=":J6_7_0" dir="s" state="M"/>
    <connection from="E10" to="-E4" fromLane="0" toLane="0" via=":J6_8_0" dir="l" state="m"/>
    <connection from="E12" to="-E5" fromLane="0" toLane="0" via=":J7_0_0" dir="r" state="M"/>
    <connection from="E12" to="E13" fromLane="0" toLane="0" via=":J7_1_0" dir="s" state="M"/>
    <connection from="E12" to="E6" fromLane="0" toLane="0" via=":J7_2_0" dir="l" state="m"/>
    <connection from="E4" to="-E10" fromLane="0" toLane="0" via=":J6_9_0" dir="r" state="m"/>
    <connection from="E4" to="E5" fromLane="0" toLane="0" via=":J6_10_0" dir="s" state="m"/>
    <connection from="E4" to="E11" fromLane="0" toLane="0" via=":J6_11_0" dir="l" state="m"/>
    <connection from="E5" to="E13" fromLane="0" toLane="0" via=":J7_9_0" dir="r" state="m"/>
    <connection from="E5" to="E6" fromLane="0" toLane="0" via=":J7_10_0" dir="s" state="m"/>
    <connection from="E5" to="-E12" fromLane="0" toLane="0" via=":J7_11_0" dir="l" state="m"/>

    <connection from=":J6_0" to="-E4" fromLane="0" toLane="0" dir="r" state="M"/>
    <connection from=":J6_1" to="-E10" fromLane="0" toLane="0" dir="s" state="M"/>
    <connection from=":J6_2" to="E5" fromLane="0" toLane="0" via=":J6_12_0" dir="l" state="m"/>
    <connection from=":J6_12" to="E5" fromLane="0" toLane="0" dir="l" state="M"/>
    <connection from=":J6_3" to="E11" fromLane="0" toLane="0" dir="r" state="M"/>
    <connection from=":J6_4" to="-E4" fromLane="0" toLane="0" dir="s" state="M"/>
    <connection from=":J6_5" to="-E10" fromLane="0" toLane="0" dir="l" state="M"/>
    <connection from=":J6_6" to="E5" fromLane="0" toLane="0" dir="r" state="M"/>
    <connection from=":J6_7" to="E11" fromLane="0" toLane="0" dir="s" state="M"/>
    <connection from=":J6_8" to="-E4" fromLane="0" toLane="0" via=":J6_13_0" dir="l" state="m"/>
    <connection from=":J6_13" to="-E4" fromLane="0" toLane="0" dir="l" state="M"/>
    <connection from=":J6_9" to="-E10" fromLane="0" toLane="0" dir="r" state="M"/>
    <connection from=":J6_10" to="E5" fromLane="0" toLane="0" dir="s" state="M"/>
    <connection from=":J6_11" to="E11" fromLane="0" toLane="0" dir="l" state="M"/>
    <connection from=":J7_0" to="-E5" fromLane="0" toLane="0" dir="r" state="M"/>
    <connection from=":J7_1" to="E13" fromLane="0" toLane="0" dir="s" state="M"/>
    <connection from=":J7_2" to="E6" fromLane="0" toLane="0" via=":J7_12_0" dir="l" state="m"/>
    <connection from=":J7_12" to="E6" fromLane="0" toLane="0" dir="l" state="M"/>
    <connection from=":J7_3" to="-E12" fromLane="0" toLane="0" dir="r" state="M"/>
    <connection from=":J7_4" to="-E5" fromLane="0" toLane="0" dir="s" state="M"/>
    <connection from=":J7_5" to="E13" fromLane="0" toLane="0" dir="l" state="M"/>
    <connection from=":J7_6" to="E6" fromLane="0" toLane="0" dir="r" state="M"/>
    <connection from=":J7_7" to="-E12" fromLane="0" toLane="0" dir="s" state="M"/>
    <connection from=":J7_8" to="-E5" fromLane="0" toLane="0" via=":J7_13_0" dir="l" state="m"/>
    <connection from=":J7_13" to="-E5" fromLane="0" toLane="0" dir="l" state="M"/>
    <connection from=":J7_9" to="E13" fromLane="0" toLane="0" dir="r" state="M"/>
    <connection from=":J7_10" to="E6" fromLane="0" toLane="0" dir="s" state="M"/>
    <connection from=":J7_11" to="-E12" fromLane="0" toLane="0" dir="l" state="M"/>

</net>
